* C:\Users\monts\OneDrive\Documentos\Escuela\Cinvestav\Primer Cuatrimestre\RFI\Proyecto\NetlistSpice\LineaTranmisionSerie.asc
TL1 N001 N002 60 45 1E9
.backanno
.end
