Version 4
SHEET 1 880 680
WIRE 272 -64 224 -64
WIRE 288 -64 272 -64
WIRE 496 -64 480 -64
WIRE 144 -48 144 -64
WIRE 144 -48 64 -48
WIRE 272 -32 272 -64
WIRE 64 80 64 -48
WIRE 64 80 32 80
WIRE 112 80 64 80
WIRE 272 80 176 80
WIRE 400 80 272 80
WIRE 496 80 496 -64
WIRE 496 80 464 80
WIRE 528 80 496 80
WIRE 64 112 64 80
WIRE 272 112 272 80
WIRE 496 112 496 80
WIRE 64 208 64 192
WIRE 64 208 0 208
WIRE 496 208 496 192
WIRE 576 208 496 208
WIRE 496 224 496 208
WIRE 272 240 272 224
WIRE 64 304 64 288
WIRE 64 320 64 304
WIRE 496 352 496 304
FLAG 272 240 0
FLAG 496 352 0
FLAG -32 80 N001
FLAG 592 80 N002
FLAG 64 80 N003
FLAG 272 80 N004
FLAG 496 80 N005
FLAG 64 320 0
FLAG 576 208 N007
FLAG 272 -32 N008
FLAG 0 208 N006
SYMBOL res 48 96 R0
SYMATTR InstName R1
SYMATTR Value 75
SYMBOL res 480 96 R0
SYMATTR InstName R2
SYMATTR Value 75
SYMBOL SSC 320 176 R90
SYMATTR SpiceModel 62.83
SYMATTR Value 45
SYMATTR Value2 1E9
SYMATTR InstName SSC1
SYMBOL polcap 112 96 R270
WINDOW 0 32 32 VTop 2
WINDOW 3 0 32 VBottom 2
SYMATTR InstName C2
SYMATTR Value 12p
SYMBOL polcap -32 96 R270
WINDOW 0 32 32 VTop 2
WINDOW 3 0 32 VBottom 2
SYMATTR InstName C1
SYMATTR Value 12p
SYMBOL polcap 400 96 R270
WINDOW 0 32 32 VTop 2
WINDOW 3 0 32 VBottom 2
SYMATTR InstName C3
SYMATTR Value 12p
SYMBOL polcap 528 96 R270
WINDOW 0 32 32 VTop 2
WINDOW 3 0 32 VBottom 2
SYMATTR InstName C4
SYMATTR Value 12p
SYMBOL res 480 208 R0
SYMATTR InstName R4
SYMATTR Value 75
SYMBOL res 128 -48 R270
WINDOW 0 32 56 VTop 2
WINDOW 3 0 56 VBottom 2
SYMATTR InstName R5
SYMBOL SSC 352 -112 R0
SYMATTR InstName S1
SYMBOL TL 64 256 R90
SYMATTR InstName T1
SYMBOL res 496 -80 R90
WINDOW 0 0 56 VBottom 2
WINDOW 3 32 56 VTop 2
SYMATTR InstName R3
