Version 4
SHEET 1 880 680
WIRE 336 112 16 112
WIRE 512 112 416 112
WIRE 752 112 512 112
WIRE 768 112 752 112
WIRE 512 160 512 112
WIRE 512 272 512 224
FLAG 752 112 N002
FLAG 16 112 N001
FLAG 512 272 0
SYMBOL res 432 96 R90
WINDOW 0 0 56 VBottom 2
WINDOW 3 32 56 VTop 2
SYMATTR InstName R1
SYMATTR Value 75
SYMBOL cap 496 160 R0
SYMATTR InstName C1
SYMATTR Value 5p
