* C:\Users\monts\OneDrive\Documentos\Escuela\Cinvestav\Primer Cuatrimestre\RFI\Proyecto\NetlistSpice\ElementosSerie.asc
SSC1 N001 N002 45 45 1E9
.backanno
.end
