Version 4
SHEET 1 880 680
WIRE 64 160 16 160
WIRE 176 160 144 160
WIRE 288 160 272 160
WIRE 432 160 368 160
FLAG 16 160 N001
FLAG 432 160 N002
SYMBOL ind 272 176 R270
WINDOW 0 32 56 VTop 2
WINDOW 3 5 56 VBottom 2
SYMATTR InstName L1
SYMATTR Value 1n
SYMBOL TL 224 160 R0
SYMATTR SpiceModel 45
SYMATTR Value 45
SYMATTR Value2 1E9
SYMATTR InstName TL1
SYMBOL ind 48 176 R270
WINDOW 0 32 56 VTop 2
WINDOW 3 5 56 VBottom 2
SYMATTR InstName L2
SYMATTR Value 1n
