Version 4
SHEET 1 880 680
WIRE 80 96 -16 96
WIRE 80 112 80 96
WIRE 240 112 192 112
WIRE 240 144 240 112
WIRE 368 144 240 144
WIRE 240 192 240 144
WIRE 240 336 240 256
FLAG -16 96 N001
FLAG 368 144 N002
FLAG 240 336 0
SYMBOL SSC 144 64 R0
SYMATTR SpiceModel 56.54
SYMATTR Value 45
SYMATTR Value2 1E9
SYMATTR InstName SSC1
SYMBOL cap 224 192 R0
SYMATTR InstName C1
SYMATTR Value 17p
